/*--------------------------------*- C++ -*----------------------------------*\
| =========                 |                                                 |
| \\      /  F ield         | OpenFOAM Extend Project: Open Source CFD        |
|  \\    /   O peration     | Version:  1.6-ext                               |
|   \\  /    A nd           | Web:      www.extend-project.de                 |
|    \\/     M anipulation  |                                                 |
\*---------------------------------------------------------------------------*/
FoamFile
{
    version     2.0;
    format      ascii;
    class       dictionary;
    location    "constant";
    object      mechanicalProperties;
}
// * * * * * * * * * * * * * * * * * * * * * * * * * * * * * * * * * * * * * //

planeStress        no;

mechanical
(
    steel
    {
        type            linearElasticMisesPlastic;
        rho             rho [1 -3 0 0 0 0 0] 7800;
        E               E [1 -1 -2 0 0 0 0] 210e+09;
        nu              nu [0 0 0 0 0 0 0] 0.3;
        "file|fileName" "$FOAM_CASE/constant/plasticStrainVsYieldStress";
        outOfBounds     clamp;
        solveVertexCentredPressureEqn yes;
        numericalTangent yes;
        tangentEps 1e-10;
    }
);

// ************************************************************************* //
