/*--------------------------------*- C++ -*----------------------------------*\
| =========                 |                                                 |
| \\      /  F ield         | OpenFOAM Extend Project: Open Source CFD        |
|  \\    /   O peration     | Version:  1.6-ext                               |
|   \\  /    A nd           | Web:      www.extend-project.de                 |
|    \\/     M anipulation  |                                                 |
\*---------------------------------------------------------------------------*/
FoamFile
{
    version     2.0;
    format      ascii;
    class       dictionary;
    location    "system";
    object      fvSolution;
}
// * * * * * * * * * * * * * * * * * * * * * * * * * * * * * * * * * * * * * //

solvers
{
	"D|DD"
	{
		solver			PCG;
		preconditioner	DIC;

		minIter			0;
		maxIter			500;

		tolerance		1e-9;
		relTol			1e-2;
	}
}

relaxationFactors
{
	fields
	{
		// "D|DD"         0.3;
	}

	equations
	{
		// D              0.9;
	}
}

// ************************************************************************* //
