/*--------------------------------*- C++ -*----------------------------------*\
| =========                 |                                                 |
| \\      /  F ield         | OpenFOAM Extend Project: Open Source CFD        |
|  \\    /   O peration     | Version:  1.6-ext                               |
|   \\  /    A nd           | Web:      www.extend-project.de                 |
|    \\/     M anipulation  |                                                 |
\*---------------------------------------------------------------------------*/
FoamFile
{
    version     2.0;
    format      ascii;
    class       dictionary;
    location    "system";
    object      controlDict;
}
// * * * * * * * * * * * * * * * * * * * * * * * * * * * * * * * * * * * * * //

DebugSwitches
{
    linearElasticMisesPlastic 0; // Do not write "Max DEpsilonPEq" each time
}

application     solids4Foam;

startFrom       startTime;

startTime       0;

stopAt          endTime;

endTime         20;

maxCo           0.5;

// Not used but needs to be smaller than endTime
deltaT          1e-6;

writeControl    timeStep;

writeInterval   15303;

cycleWrite      0;

writeFormat     ascii;

writePrecision  6;

writeCompression uncompressed;

timeFormat      general;

timePrecision   6;

runTimeModifiable no;

// ************************************************************************* //
